Version 4
SHEET 1 880 680
SYMBOL cap 128 112 R0
SYMATTR InstName C1
SYMBOL cap 224 112 R0
SYMATTR InstName C2
SYMBOL cap 336 144 R0
SYMATTR InstName C3
SYMBOL cap 208 208 R0
SYMATTR InstName C4
