Version 4
SHEET 1 880 680
SYMBOL cap 80 96 R0
SYMATTR InstName C1
SYMBOL cap 224 96 R0
SYMATTR InstName C2
